# *******************
# Calendar Parameters
# *******************
 &CAL_NML
 TheCalendar='model',
 calendarDumps=.true.,
 startDate_1=000101,
 startDate_2=000000,
 /
