# Packages
 &PACKAGES
 useOBCS        = .true.,
 useShelfIce    = .true.,
 usesmooth      = .true.,
 &
